* NGSPICE file created from picorv32_axi.ext - technology: sky130A

* Black-box entry subcircuit for sky130_fd_sc_hd__fill_1 abstract view
.subckt sky130_fd_sc_hd__fill_1 VGND VNB VPB VPWR
.ends

* Black-box entry subcircuit for sky130_fd_sc_hd__o21a_1 abstract view
.subckt sky130_fd_sc_hd__o21a_1 A1 A2 B1 VGND VNB VPB VPWR X
.ends

* Black-box entry subcircuit for sky130_fd_sc_hd__a31o_1 abstract view
.subckt sky130_fd_sc_hd__a31o_1 A1 A2 A3 B1 VGND VNB VPB VPWR X
.ends

* Black-box entry subcircuit for sky130_fd_sc_hd__nor2_1 abstract view
.subckt sky130_fd_sc_hd__nor2_1 A B VGND VNB VPB VPWR Y
.ends

* Black-box entry subcircuit for sky130_ef_sc_hd__decap_12 abstract view
.subckt sky130_ef_sc_hd__decap_12 VPWR VGND VPB VNB
.ends

* Black-box entry subcircuit for sky130_fd_sc_hd__fill_2 abstract view
.subckt sky130_fd_sc_hd__fill_2 VGND VNB VPB VPWR
.ends

* Black-box entry subcircuit for sky130_fd_sc_hd__mux2_1 abstract view
.subckt sky130_fd_sc_hd__mux2_1 A0 A1 S VGND VNB VPB VPWR X
.ends

* Black-box entry subcircuit for sky130_fd_sc_hd__decap_4 abstract view
.subckt sky130_fd_sc_hd__decap_4 VGND VNB VPB VPWR
.ends

* Black-box entry subcircuit for sky130_fd_sc_hd__or2_1 abstract view
.subckt sky130_fd_sc_hd__or2_1 A B VGND VNB VPB VPWR X
.ends

* Black-box entry subcircuit for sky130_fd_sc_hd__or2_2 abstract view
.subckt sky130_fd_sc_hd__or2_2 A B VGND VNB VPB VPWR X
.ends

* Black-box entry subcircuit for sky130_fd_sc_hd__a221o_1 abstract view
.subckt sky130_fd_sc_hd__a221o_1 A1 A2 B1 B2 C1 VGND VNB VPB VPWR X
.ends

* Black-box entry subcircuit for sky130_fd_sc_hd__and2b_1 abstract view
.subckt sky130_fd_sc_hd__and2b_1 A_N B VGND VNB VPB VPWR X
.ends

* Black-box entry subcircuit for sky130_fd_sc_hd__decap_6 abstract view
.subckt sky130_fd_sc_hd__decap_6 VGND VNB VPB VPWR
.ends

* Black-box entry subcircuit for sky130_fd_sc_hd__tapvpwrvgnd_1 abstract view
.subckt sky130_fd_sc_hd__tapvpwrvgnd_1 VGND VPWR
.ends

* Black-box entry subcircuit for sky130_fd_sc_hd__mux2_2 abstract view
.subckt sky130_fd_sc_hd__mux2_2 A0 A1 S VGND VNB VPB VPWR X
.ends

* Black-box entry subcircuit for sky130_fd_sc_hd__nand2_1 abstract view
.subckt sky130_fd_sc_hd__nand2_1 A B VGND VNB VPB VPWR Y
.ends

* Black-box entry subcircuit for sky130_fd_sc_hd__dlygate4sd3_1 abstract view
.subckt sky130_fd_sc_hd__dlygate4sd3_1 A VGND VNB VPB VPWR X
.ends

* Black-box entry subcircuit for sky130_fd_sc_hd__nor3_4 abstract view
.subckt sky130_fd_sc_hd__nor3_4 A B C VGND VNB VPB VPWR Y
.ends

* Black-box entry subcircuit for sky130_fd_sc_hd__buf_2 abstract view
.subckt sky130_fd_sc_hd__buf_2 A VGND VNB VPB VPWR X
.ends

* Black-box entry subcircuit for sky130_fd_sc_hd__clkbuf_4 abstract view
.subckt sky130_fd_sc_hd__clkbuf_4 A VGND VNB VPB VPWR X
.ends

* Black-box entry subcircuit for sky130_fd_sc_hd__a22o_1 abstract view
.subckt sky130_fd_sc_hd__a22o_1 A1 A2 B1 B2 VGND VNB VPB VPWR X
.ends

* Black-box entry subcircuit for sky130_fd_sc_hd__buf_4 abstract view
.subckt sky130_fd_sc_hd__buf_4 A VGND VNB VPB VPWR X
.ends

* Black-box entry subcircuit for sky130_fd_sc_hd__decap_3 abstract view
.subckt sky130_fd_sc_hd__decap_3 VGND VNB VPB VPWR
.ends

* Black-box entry subcircuit for sky130_fd_sc_hd__clkbuf_1 abstract view
.subckt sky130_fd_sc_hd__clkbuf_1 A VGND VNB VPB VPWR X
.ends

* Black-box entry subcircuit for sky130_fd_sc_hd__dfxtp_1 abstract view
.subckt sky130_fd_sc_hd__dfxtp_1 CLK D VGND VNB VPB VPWR Q
.ends

* Black-box entry subcircuit for sky130_fd_sc_hd__a21o_1 abstract view
.subckt sky130_fd_sc_hd__a21o_1 A1 A2 B1 VGND VNB VPB VPWR X
.ends

* Black-box entry subcircuit for sky130_fd_sc_hd__and4_1 abstract view
.subckt sky130_fd_sc_hd__and4_1 A B C D VGND VNB VPB VPWR X
.ends

* Black-box entry subcircuit for sky130_fd_sc_hd__and3b_1 abstract view
.subckt sky130_fd_sc_hd__and3b_1 A_N B C VGND VNB VPB VPWR X
.ends

* Black-box entry subcircuit for sky130_fd_sc_hd__o31a_1 abstract view
.subckt sky130_fd_sc_hd__o31a_1 A1 A2 A3 B1 VGND VNB VPB VPWR X
.ends

* Black-box entry subcircuit for sky130_fd_sc_hd__mux4_1 abstract view
.subckt sky130_fd_sc_hd__mux4_1 A0 A1 A2 A3 S0 S1 VGND VNB VPB VPWR X
.ends

* Black-box entry subcircuit for sky130_fd_sc_hd__a21oi_1 abstract view
.subckt sky130_fd_sc_hd__a21oi_1 A1 A2 B1 VGND VNB VPB VPWR Y
.ends

* Black-box entry subcircuit for sky130_fd_sc_hd__and2_1 abstract view
.subckt sky130_fd_sc_hd__and2_1 A B VGND VNB VPB VPWR X
.ends

* Black-box entry subcircuit for sky130_fd_sc_hd__or3b_1 abstract view
.subckt sky130_fd_sc_hd__or3b_1 A B C_N VGND VNB VPB VPWR X
.ends

* Black-box entry subcircuit for sky130_fd_sc_hd__a211o_1 abstract view
.subckt sky130_fd_sc_hd__a211o_1 A1 A2 B1 C1 VGND VNB VPB VPWR X
.ends

* Black-box entry subcircuit for sky130_fd_sc_hd__o22a_1 abstract view
.subckt sky130_fd_sc_hd__o22a_1 A1 A2 B1 B2 VGND VNB VPB VPWR X
.ends

* Black-box entry subcircuit for sky130_fd_sc_hd__or2_4 abstract view
.subckt sky130_fd_sc_hd__or2_4 A B VGND VNB VPB VPWR X
.ends

* Black-box entry subcircuit for sky130_fd_sc_hd__decap_8 abstract view
.subckt sky130_fd_sc_hd__decap_8 VGND VNB VPB VPWR
.ends

* Black-box entry subcircuit for sky130_fd_sc_hd__clkbuf_2 abstract view
.subckt sky130_fd_sc_hd__clkbuf_2 A VGND VNB VPB VPWR X
.ends

* Black-box entry subcircuit for sky130_fd_sc_hd__dfxtp_2 abstract view
.subckt sky130_fd_sc_hd__dfxtp_2 CLK D VGND VNB VPB VPWR Q
.ends

* Black-box entry subcircuit for sky130_fd_sc_hd__a32o_1 abstract view
.subckt sky130_fd_sc_hd__a32o_1 A1 A2 A3 B1 B2 VGND VNB VPB VPWR X
.ends

* Black-box entry subcircuit for sky130_fd_sc_hd__clkbuf_8 abstract view
.subckt sky130_fd_sc_hd__clkbuf_8 A VGND VNB VPB VPWR X
.ends

* Black-box entry subcircuit for sky130_fd_sc_hd__nor2_2 abstract view
.subckt sky130_fd_sc_hd__nor2_2 A B VGND VNB VPB VPWR Y
.ends

* Black-box entry subcircuit for sky130_fd_sc_hd__and3_1 abstract view
.subckt sky130_fd_sc_hd__and3_1 A B C VGND VNB VPB VPWR X
.ends

* Black-box entry subcircuit for sky130_fd_sc_hd__or3_2 abstract view
.subckt sky130_fd_sc_hd__or3_2 A B C VGND VNB VPB VPWR X
.ends

* Black-box entry subcircuit for sky130_fd_sc_hd__o21ai_1 abstract view
.subckt sky130_fd_sc_hd__o21ai_1 A1 A2 B1 VGND VNB VPB VPWR Y
.ends

* Black-box entry subcircuit for sky130_fd_sc_hd__nand3_1 abstract view
.subckt sky130_fd_sc_hd__nand3_1 A B C VGND VNB VPB VPWR Y
.ends

* Black-box entry subcircuit for sky130_fd_sc_hd__or4b_1 abstract view
.subckt sky130_fd_sc_hd__or4b_1 A B C D_N VGND VNB VPB VPWR X
.ends

* Black-box entry subcircuit for sky130_fd_sc_hd__inv_12 abstract view
.subckt sky130_fd_sc_hd__inv_12 A VGND VNB VPB VPWR Y
.ends

* Black-box entry subcircuit for sky130_fd_sc_hd__o211a_1 abstract view
.subckt sky130_fd_sc_hd__o211a_1 A1 A2 B1 C1 VGND VNB VPB VPWR X
.ends

* Black-box entry subcircuit for sky130_fd_sc_hd__conb_1 abstract view
.subckt sky130_fd_sc_hd__conb_1 VGND VNB VPB VPWR HI LO
.ends

* Black-box entry subcircuit for sky130_fd_sc_hd__diode_2 abstract view
.subckt sky130_fd_sc_hd__diode_2 DIODE VGND VNB VPB VPWR
.ends

* Black-box entry subcircuit for sky130_fd_sc_hd__a311o_1 abstract view
.subckt sky130_fd_sc_hd__a311o_1 A1 A2 A3 B1 C1 VGND VNB VPB VPWR X
.ends

* Black-box entry subcircuit for sky130_fd_sc_hd__nand2b_1 abstract view
.subckt sky130_fd_sc_hd__nand2b_1 A_N B VGND VNB VPB VPWR Y
.ends

* Black-box entry subcircuit for sky130_fd_sc_hd__inv_2 abstract view
.subckt sky130_fd_sc_hd__inv_2 A VGND VNB VPB VPWR Y
.ends

* Black-box entry subcircuit for sky130_fd_sc_hd__or4_2 abstract view
.subckt sky130_fd_sc_hd__or4_2 A B C D VGND VNB VPB VPWR X
.ends

* Black-box entry subcircuit for sky130_fd_sc_hd__o21ba_4 abstract view
.subckt sky130_fd_sc_hd__o21ba_4 A1 A2 B1_N VGND VNB VPB VPWR X
.ends

* Black-box entry subcircuit for sky130_fd_sc_hd__or3_1 abstract view
.subckt sky130_fd_sc_hd__or3_1 A B C VGND VNB VPB VPWR X
.ends

* Black-box entry subcircuit for sky130_fd_sc_hd__or4_1 abstract view
.subckt sky130_fd_sc_hd__or4_1 A B C D VGND VNB VPB VPWR X
.ends

* Black-box entry subcircuit for sky130_fd_sc_hd__xnor2_1 abstract view
.subckt sky130_fd_sc_hd__xnor2_1 A B VGND VNB VPB VPWR Y
.ends

* Black-box entry subcircuit for sky130_fd_sc_hd__nand4_1 abstract view
.subckt sky130_fd_sc_hd__nand4_1 A B C D VGND VNB VPB VPWR Y
.ends

* Black-box entry subcircuit for sky130_fd_sc_hd__a2bb2o_1 abstract view
.subckt sky130_fd_sc_hd__a2bb2o_1 A1_N A2_N B1 B2 VGND VNB VPB VPWR X
.ends

* Black-box entry subcircuit for sky130_fd_sc_hd__clkinv_4 abstract view
.subckt sky130_fd_sc_hd__clkinv_4 A VGND VNB VPB VPWR Y
.ends

* Black-box entry subcircuit for sky130_fd_sc_hd__o221a_1 abstract view
.subckt sky130_fd_sc_hd__o221a_1 A1 A2 B1 B2 C1 VGND VNB VPB VPWR X
.ends

* Black-box entry subcircuit for sky130_fd_sc_hd__clkinv_2 abstract view
.subckt sky130_fd_sc_hd__clkinv_2 A VGND VNB VPB VPWR Y
.ends

* Black-box entry subcircuit for sky130_fd_sc_hd__a2111o_1 abstract view
.subckt sky130_fd_sc_hd__a2111o_1 A1 A2 B1 C1 D1 VGND VNB VPB VPWR X
.ends

* Black-box entry subcircuit for sky130_fd_sc_hd__or3b_2 abstract view
.subckt sky130_fd_sc_hd__or3b_2 A B C_N VGND VNB VPB VPWR X
.ends

* Black-box entry subcircuit for sky130_fd_sc_hd__or3b_4 abstract view
.subckt sky130_fd_sc_hd__or3b_4 A B C_N VGND VNB VPB VPWR X
.ends

* Black-box entry subcircuit for sky130_fd_sc_hd__dfxtp_4 abstract view
.subckt sky130_fd_sc_hd__dfxtp_4 CLK D VGND VNB VPB VPWR Q
.ends

* Black-box entry subcircuit for sky130_fd_sc_hd__nand4b_1 abstract view
.subckt sky130_fd_sc_hd__nand4b_1 A_N B C D VGND VNB VPB VPWR Y
.ends

* Black-box entry subcircuit for sky130_fd_sc_hd__clkinv_8 abstract view
.subckt sky130_fd_sc_hd__clkinv_8 A VGND VNB VPB VPWR Y
.ends

* Black-box entry subcircuit for sky130_fd_sc_hd__inv_6 abstract view
.subckt sky130_fd_sc_hd__inv_6 A VGND VNB VPB VPWR Y
.ends

* Black-box entry subcircuit for sky130_fd_sc_hd__a211oi_1 abstract view
.subckt sky130_fd_sc_hd__a211oi_1 A1 A2 B1 C1 VGND VNB VPB VPWR Y
.ends

* Black-box entry subcircuit for sky130_fd_sc_hd__buf_1 abstract view
.subckt sky130_fd_sc_hd__buf_1 A VGND VNB VPB VPWR X
.ends

* Black-box entry subcircuit for sky130_fd_sc_hd__xor2_1 abstract view
.subckt sky130_fd_sc_hd__xor2_1 A B VGND VNB VPB VPWR X
.ends

* Black-box entry subcircuit for sky130_fd_sc_hd__dlymetal6s2s_1 abstract view
.subckt sky130_fd_sc_hd__dlymetal6s2s_1 A VGND VNB VPB VPWR X
.ends

* Black-box entry subcircuit for sky130_fd_sc_hd__clkinvlp_4 abstract view
.subckt sky130_fd_sc_hd__clkinvlp_4 A VGND VNB VPB VPWR Y
.ends

* Black-box entry subcircuit for sky130_fd_sc_hd__a41o_1 abstract view
.subckt sky130_fd_sc_hd__a41o_1 A1 A2 A3 A4 B1 VGND VNB VPB VPWR X
.ends

* Black-box entry subcircuit for sky130_fd_sc_hd__a21bo_1 abstract view
.subckt sky130_fd_sc_hd__a21bo_1 A1 A2 B1_N VGND VNB VPB VPWR X
.ends

* Black-box entry subcircuit for sky130_fd_sc_hd__and4bb_1 abstract view
.subckt sky130_fd_sc_hd__and4bb_1 A_N B_N C D VGND VNB VPB VPWR X
.ends

* Black-box entry subcircuit for sky130_fd_sc_hd__a2111oi_1 abstract view
.subckt sky130_fd_sc_hd__a2111oi_1 A1 A2 B1 C1 D1 VGND VNB VPB VPWR Y
.ends

* Black-box entry subcircuit for sky130_fd_sc_hd__nor4_1 abstract view
.subckt sky130_fd_sc_hd__nor4_1 A B C D VGND VNB VPB VPWR Y
.ends

* Black-box entry subcircuit for sky130_fd_sc_hd__o21bai_1 abstract view
.subckt sky130_fd_sc_hd__o21bai_1 A1 A2 B1_N VGND VNB VPB VPWR Y
.ends

* Black-box entry subcircuit for sky130_fd_sc_hd__bufinv_16 abstract view
.subckt sky130_fd_sc_hd__bufinv_16 A VGND VNB VPB VPWR Y
.ends

* Black-box entry subcircuit for sky130_fd_sc_hd__inv_8 abstract view
.subckt sky130_fd_sc_hd__inv_8 A VGND VNB VPB VPWR Y
.ends

* Black-box entry subcircuit for sky130_fd_sc_hd__a21boi_1 abstract view
.subckt sky130_fd_sc_hd__a21boi_1 A1 A2 B1_N VGND VNB VPB VPWR Y
.ends

* Black-box entry subcircuit for sky130_fd_sc_hd__a211o_2 abstract view
.subckt sky130_fd_sc_hd__a211o_2 A1 A2 B1 C1 VGND VNB VPB VPWR X
.ends

* Black-box entry subcircuit for sky130_fd_sc_hd__nor3_2 abstract view
.subckt sky130_fd_sc_hd__nor3_2 A B C VGND VNB VPB VPWR Y
.ends

* Black-box entry subcircuit for sky130_fd_sc_hd__a31oi_2 abstract view
.subckt sky130_fd_sc_hd__a31oi_2 A1 A2 A3 B1 VGND VNB VPB VPWR Y
.ends

* Black-box entry subcircuit for sky130_fd_sc_hd__and4bb_2 abstract view
.subckt sky130_fd_sc_hd__and4bb_2 A_N B_N C D VGND VNB VPB VPWR X
.ends

* Black-box entry subcircuit for sky130_fd_sc_hd__nor2_4 abstract view
.subckt sky130_fd_sc_hd__nor2_4 A B VGND VNB VPB VPWR Y
.ends

* Black-box entry subcircuit for sky130_fd_sc_hd__o211ai_1 abstract view
.subckt sky130_fd_sc_hd__o211ai_1 A1 A2 B1 C1 VGND VNB VPB VPWR Y
.ends

* Black-box entry subcircuit for sky130_fd_sc_hd__o2bb2a_1 abstract view
.subckt sky130_fd_sc_hd__o2bb2a_1 A1_N A2_N B1 B2 VGND VNB VPB VPWR X
.ends

* Black-box entry subcircuit for sky130_fd_sc_hd__o311ai_4 abstract view
.subckt sky130_fd_sc_hd__o311ai_4 A1 A2 A3 B1 C1 VGND VNB VPB VPWR Y
.ends

* Black-box entry subcircuit for sky130_fd_sc_hd__o21ai_2 abstract view
.subckt sky130_fd_sc_hd__o21ai_2 A1 A2 B1 VGND VNB VPB VPWR Y
.ends

* Black-box entry subcircuit for sky130_fd_sc_hd__o32a_1 abstract view
.subckt sky130_fd_sc_hd__o32a_1 A1 A2 A3 B1 B2 VGND VNB VPB VPWR X
.ends

* Black-box entry subcircuit for sky130_fd_sc_hd__a21o_2 abstract view
.subckt sky130_fd_sc_hd__a21o_2 A1 A2 B1 VGND VNB VPB VPWR X
.ends

* Black-box entry subcircuit for sky130_fd_sc_hd__clkbuf_16 abstract view
.subckt sky130_fd_sc_hd__clkbuf_16 A VGND VNB VPB VPWR X
.ends

* Black-box entry subcircuit for sky130_fd_sc_hd__nor2_8 abstract view
.subckt sky130_fd_sc_hd__nor2_8 A B VGND VNB VPB VPWR Y
.ends

* Black-box entry subcircuit for sky130_fd_sc_hd__o211ai_2 abstract view
.subckt sky130_fd_sc_hd__o211ai_2 A1 A2 B1 C1 VGND VNB VPB VPWR Y
.ends

* Black-box entry subcircuit for sky130_fd_sc_hd__nand3_4 abstract view
.subckt sky130_fd_sc_hd__nand3_4 A B C VGND VNB VPB VPWR Y
.ends

* Black-box entry subcircuit for sky130_fd_sc_hd__and2_2 abstract view
.subckt sky130_fd_sc_hd__and2_2 A B VGND VNB VPB VPWR X
.ends

* Black-box entry subcircuit for sky130_fd_sc_hd__and4b_1 abstract view
.subckt sky130_fd_sc_hd__and4b_1 A_N B C D VGND VNB VPB VPWR X
.ends

* Black-box entry subcircuit for sky130_fd_sc_hd__or3_4 abstract view
.subckt sky130_fd_sc_hd__or3_4 A B C VGND VNB VPB VPWR X
.ends

* Black-box entry subcircuit for sky130_fd_sc_hd__and3_2 abstract view
.subckt sky130_fd_sc_hd__and3_2 A B C VGND VNB VPB VPWR X
.ends

* Black-box entry subcircuit for sky130_fd_sc_hd__nor3_1 abstract view
.subckt sky130_fd_sc_hd__nor3_1 A B C VGND VNB VPB VPWR Y
.ends

* Black-box entry subcircuit for sky130_fd_sc_hd__o21ba_1 abstract view
.subckt sky130_fd_sc_hd__o21ba_1 A1 A2 B1_N VGND VNB VPB VPWR X
.ends

* Black-box entry subcircuit for sky130_fd_sc_hd__o2111a_1 abstract view
.subckt sky130_fd_sc_hd__o2111a_1 A1 A2 B1 C1 D1 VGND VNB VPB VPWR X
.ends

* Black-box entry subcircuit for sky130_fd_sc_hd__and4_2 abstract view
.subckt sky130_fd_sc_hd__and4_2 A B C D VGND VNB VPB VPWR X
.ends

* Black-box entry subcircuit for sky130_fd_sc_hd__mux2_4 abstract view
.subckt sky130_fd_sc_hd__mux2_4 A0 A1 S VGND VNB VPB VPWR X
.ends

* Black-box entry subcircuit for sky130_fd_sc_hd__or4_4 abstract view
.subckt sky130_fd_sc_hd__or4_4 A B C D VGND VNB VPB VPWR X
.ends

* Black-box entry subcircuit for sky130_fd_sc_hd__o2111ai_2 abstract view
.subckt sky130_fd_sc_hd__o2111ai_2 A1 A2 B1 C1 D1 VGND VNB VPB VPWR Y
.ends

* Black-box entry subcircuit for sky130_fd_sc_hd__nand2_2 abstract view
.subckt sky130_fd_sc_hd__nand2_2 A B VGND VNB VPB VPWR Y
.ends

* Black-box entry subcircuit for sky130_fd_sc_hd__nand3b_2 abstract view
.subckt sky130_fd_sc_hd__nand3b_2 A_N B C VGND VNB VPB VPWR Y
.ends

* Black-box entry subcircuit for sky130_fd_sc_hd__nor4_2 abstract view
.subckt sky130_fd_sc_hd__nor4_2 A B C D VGND VNB VPB VPWR Y
.ends

* Black-box entry subcircuit for sky130_fd_sc_hd__nand2_4 abstract view
.subckt sky130_fd_sc_hd__nand2_4 A B VGND VNB VPB VPWR Y
.ends

* Black-box entry subcircuit for sky130_fd_sc_hd__mux4_2 abstract view
.subckt sky130_fd_sc_hd__mux4_2 A0 A1 A2 A3 S0 S1 VGND VNB VPB VPWR X
.ends

* Black-box entry subcircuit for sky130_fd_sc_hd__a221oi_2 abstract view
.subckt sky130_fd_sc_hd__a221oi_2 A1 A2 B1 B2 C1 VGND VNB VPB VPWR Y
.ends

* Black-box entry subcircuit for sky130_fd_sc_hd__o2111ai_4 abstract view
.subckt sky130_fd_sc_hd__o2111ai_4 A1 A2 B1 C1 D1 VGND VNB VPB VPWR Y
.ends

* Black-box entry subcircuit for sky130_fd_sc_hd__nand3b_4 abstract view
.subckt sky130_fd_sc_hd__nand3b_4 A_N B C VGND VNB VPB VPWR Y
.ends

* Black-box entry subcircuit for sky130_fd_sc_hd__o41a_1 abstract view
.subckt sky130_fd_sc_hd__o41a_1 A1 A2 A3 A4 B1 VGND VNB VPB VPWR X
.ends

* Black-box entry subcircuit for sky130_fd_sc_hd__a31oi_1 abstract view
.subckt sky130_fd_sc_hd__a31oi_1 A1 A2 A3 B1 VGND VNB VPB VPWR Y
.ends

* Black-box entry subcircuit for sky130_fd_sc_hd__or4bb_1 abstract view
.subckt sky130_fd_sc_hd__or4bb_1 A B C_N D_N VGND VNB VPB VPWR X
.ends

* Black-box entry subcircuit for sky130_fd_sc_hd__o21bai_2 abstract view
.subckt sky130_fd_sc_hd__o21bai_2 A1 A2 B1_N VGND VNB VPB VPWR Y
.ends

* Black-box entry subcircuit for sky130_fd_sc_hd__a221oi_1 abstract view
.subckt sky130_fd_sc_hd__a221oi_1 A1 A2 B1 B2 C1 VGND VNB VPB VPWR Y
.ends

* Black-box entry subcircuit for sky130_fd_sc_hd__a311oi_2 abstract view
.subckt sky130_fd_sc_hd__a311oi_2 A1 A2 A3 B1 C1 VGND VNB VPB VPWR Y
.ends

* Black-box entry subcircuit for sky130_fd_sc_hd__o311a_1 abstract view
.subckt sky130_fd_sc_hd__o311a_1 A1 A2 A3 B1 C1 VGND VNB VPB VPWR X
.ends

* Black-box entry subcircuit for sky130_fd_sc_hd__a31o_2 abstract view
.subckt sky130_fd_sc_hd__a31o_2 A1 A2 A3 B1 VGND VNB VPB VPWR X
.ends

* Black-box entry subcircuit for sky130_fd_sc_hd__o22ai_1 abstract view
.subckt sky130_fd_sc_hd__o22ai_1 A1 A2 B1 B2 VGND VNB VPB VPWR Y
.ends

* Black-box entry subcircuit for sky130_fd_sc_hd__nand3_2 abstract view
.subckt sky130_fd_sc_hd__nand3_2 A B C VGND VNB VPB VPWR Y
.ends

* Black-box entry subcircuit for sky130_fd_sc_hd__nand3b_1 abstract view
.subckt sky130_fd_sc_hd__nand3b_1 A_N B C VGND VNB VPB VPWR Y
.ends

* Black-box entry subcircuit for sky130_fd_sc_hd__a211oi_2 abstract view
.subckt sky130_fd_sc_hd__a211oi_2 A1 A2 B1 C1 VGND VNB VPB VPWR Y
.ends

* Black-box entry subcircuit for sky130_fd_sc_hd__o221ai_1 abstract view
.subckt sky130_fd_sc_hd__o221ai_1 A1 A2 B1 B2 C1 VGND VNB VPB VPWR Y
.ends

* Black-box entry subcircuit for sky130_fd_sc_hd__buf_6 abstract view
.subckt sky130_fd_sc_hd__buf_6 A VGND VNB VPB VPWR X
.ends

* Black-box entry subcircuit for sky130_fd_sc_hd__a311oi_1 abstract view
.subckt sky130_fd_sc_hd__a311oi_1 A1 A2 A3 B1 C1 VGND VNB VPB VPWR Y
.ends

* Black-box entry subcircuit for sky130_fd_sc_hd__o21ai_4 abstract view
.subckt sky130_fd_sc_hd__o21ai_4 A1 A2 B1 VGND VNB VPB VPWR Y
.ends

* Black-box entry subcircuit for sky130_fd_sc_hd__o31ai_2 abstract view
.subckt sky130_fd_sc_hd__o31ai_2 A1 A2 A3 B1 VGND VNB VPB VPWR Y
.ends

* Black-box entry subcircuit for sky130_fd_sc_hd__and2_4 abstract view
.subckt sky130_fd_sc_hd__and2_4 A B VGND VNB VPB VPWR X
.ends

.subckt picorv32_axi VGND VPWR clk eoi[0] eoi[10] eoi[11] eoi[12] eoi[13] eoi[14]
+ eoi[15] eoi[16] eoi[17] eoi[18] eoi[19] eoi[1] eoi[20] eoi[21] eoi[22] eoi[23] eoi[24]
+ eoi[25] eoi[26] eoi[27] eoi[28] eoi[29] eoi[2] eoi[30] eoi[31] eoi[3] eoi[4] eoi[5]
+ eoi[6] eoi[7] eoi[8] eoi[9] irq[0] irq[10] irq[11] irq[12] irq[13] irq[14] irq[15]
+ irq[16] irq[17] irq[18] irq[19] irq[1] irq[20] irq[21] irq[22] irq[23] irq[24] irq[25]
+ irq[26] irq[27] irq[28] irq[29] irq[2] irq[30] irq[31] irq[3] irq[4] irq[5] irq[6]
+ irq[7] irq[8] irq[9] mem_axi_araddr[0] mem_axi_araddr[10] mem_axi_araddr[11] mem_axi_araddr[12]
+ mem_axi_araddr[13] mem_axi_araddr[14] mem_axi_araddr[15] mem_axi_araddr[16] mem_axi_araddr[17]
+ mem_axi_araddr[18] mem_axi_araddr[19] mem_axi_araddr[1] mem_axi_araddr[20] mem_axi_araddr[21]
+ mem_axi_araddr[22] mem_axi_araddr[23] mem_axi_araddr[24] mem_axi_araddr[25] mem_axi_araddr[26]
+ mem_axi_araddr[27] mem_axi_araddr[28] mem_axi_araddr[29] mem_axi_araddr[2] mem_axi_araddr[30]
+ mem_axi_araddr[31] mem_axi_araddr[3] mem_axi_araddr[4] mem_axi_araddr[5] mem_axi_araddr[6]
+ mem_axi_araddr[7] mem_axi_araddr[8] mem_axi_araddr[9] mem_axi_arprot[0] mem_axi_arprot[1]
+ mem_axi_arprot[2] mem_axi_arready mem_axi_arvalid mem_axi_awaddr[0] mem_axi_awaddr[10]
+ mem_axi_awaddr[11] mem_axi_awaddr[12] mem_axi_awaddr[13] mem_axi_awaddr[14] mem_axi_awaddr[15]
+ mem_axi_awaddr[16] mem_axi_awaddr[17] mem_axi_awaddr[18] mem_axi_awaddr[19] mem_axi_awaddr[1]
+ mem_axi_awaddr[20] mem_axi_awaddr[21] mem_axi_awaddr[22] mem_axi_awaddr[23] mem_axi_awaddr[24]
+ mem_axi_awaddr[25] mem_axi_awaddr[26] mem_axi_awaddr[27] mem_axi_awaddr[28] mem_axi_awaddr[29]
+ mem_axi_awaddr[2] mem_axi_awaddr[30] mem_axi_awaddr[31] mem_axi_awaddr[3] mem_axi_awaddr[4]
+ mem_axi_awaddr[5] mem_axi_awaddr[6] mem_axi_awaddr[7] mem_axi_awaddr[8] mem_axi_awaddr[9]
+ mem_axi_awprot[0] mem_axi_awprot[1] mem_axi_awprot[2] mem_axi_awready mem_axi_awvalid
+ mem_axi_bready mem_axi_bvalid mem_axi_rdata[0] mem_axi_rdata[10] mem_axi_rdata[11]
+ mem_axi_rdata[12] mem_axi_rdata[13] mem_axi_rdata[14] mem_axi_rdata[15] mem_axi_rdata[16]
+ mem_axi_rdata[17] mem_axi_rdata[18] mem_axi_rdata[19] mem_axi_rdata[1] mem_axi_rdata[20]
+ mem_axi_rdata[21] mem_axi_rdata[22] mem_axi_rdata[23] mem_axi_rdata[24] mem_axi_rdata[25]
+ mem_axi_rdata[26] mem_axi_rdata[27] mem_axi_rdata[28] mem_axi_rdata[29] mem_axi_rdata[2]
+ mem_axi_rdata[30] mem_axi_rdata[31] mem_axi_rdata[3] mem_axi_rdata[4] mem_axi_rdata[5]
+ mem_axi_rdata[6] mem_axi_rdata[7] mem_axi_rdata[8] mem_axi_rdata[9] mem_axi_rready
+ mem_axi_rvalid mem_axi_wdata[0] mem_axi_wdata[10] mem_axi_wdata[11] mem_axi_wdata[12]
+ mem_axi_wdata[13] mem_axi_wdata[14] mem_axi_wdata[15] mem_axi_wdata[16] mem_axi_wdata[17]
+ mem_axi_wdata[18] mem_axi_wdata[19] mem_axi_wdata[1] mem_axi_wdata[20] mem_axi_wdata[21]
+ mem_axi_wdata[22] mem_axi_wdata[23] mem_axi_wdata[24] mem_axi_wdata[25] mem_axi_wdata[26]
+ mem_axi_wdata[27] mem_axi_wdata[28] mem_axi_wdata[29] mem_axi_wdata[2] mem_axi_wdata[30]
+ mem_axi_wdata[31] mem_axi_wdata[3] mem_axi_wdata[4] mem_axi_wdata[5] mem_axi_wdata[6]
+ mem_axi_wdata[7] mem_axi_wdata[8] mem_axi_wdata[9] mem_axi_wready mem_axi_wstrb[0]
+ mem_axi_wstrb[1] mem_axi_wstrb[2] mem_axi_wstrb[3] mem_axi_wvalid pcpi_insn[0] pcpi_insn[10]
+ pcpi_insn[11] pcpi_insn[12] pcpi_insn[13] pcpi_insn[14] pcpi_insn[15] pcpi_insn[16]
+ pcpi_insn[17] pcpi_insn[18] pcpi_insn[19] pcpi_insn[1] pcpi_insn[20] pcpi_insn[21]
+ pcpi_insn[22] pcpi_insn[23] pcpi_insn[24] pcpi_insn[25] pcpi_insn[26] pcpi_insn[27]
+ pcpi_insn[28] pcpi_insn[29] pcpi_insn[2] pcpi_insn[30] pcpi_insn[31] pcpi_insn[3]
+ pcpi_insn[4] pcpi_insn[5] pcpi_insn[6] pcpi_insn[7] pcpi_insn[8] pcpi_insn[9] pcpi_rd[0]
+ pcpi_rd[10] pcpi_rd[11] pcpi_rd[12] pcpi_rd[13] pcpi_rd[14] pcpi_rd[15] pcpi_rd[16]
+ pcpi_rd[17] pcpi_rd[18] pcpi_rd[19] pcpi_rd[1] pcpi_rd[20] pcpi_rd[21] pcpi_rd[22]
+ pcpi_rd[23] pcpi_rd[24] pcpi_rd[25] pcpi_rd[26] pcpi_rd[27] pcpi_rd[28] pcpi_rd[29]
+ pcpi_rd[2] pcpi_rd[30] pcpi_rd[31] pcpi_rd[3] pcpi_rd[4] pcpi_rd[5] pcpi_rd[6] pcpi_rd[7]
+ pcpi_rd[8] pcpi_rd[9] pcpi_ready pcpi_rs1[0] pcpi_rs1[10] pcpi_rs1[11] pcpi_rs1[12]
+ pcpi_rs1[13] pcpi_rs1[14] pcpi_rs1[15] pcpi_rs1[16] pcpi_rs1[17] pcpi_rs1[18] pcpi_rs1[19]
+ pcpi_rs1[1] pcpi_rs1[20] pcpi_rs1[21] pcpi_rs1[22] pcpi_rs1[23] pcpi_rs1[24] pcpi_rs1[25]
+ pcpi_rs1[26] pcpi_rs1[27] pcpi_rs1[28] pcpi_rs1[29] pcpi_rs1[2] pcpi_rs1[30] pcpi_rs1[31]
+ pcpi_rs1[3] pcpi_rs1[4] pcpi_rs1[5] pcpi_rs1[6] pcpi_rs1[7] pcpi_rs1[8] pcpi_rs1[9]
+ pcpi_rs2[0] pcpi_rs2[10] pcpi_rs2[11] pcpi_rs2[12] pcpi_rs2[13] pcpi_rs2[14] pcpi_rs2[15]
+ pcpi_rs2[16] pcpi_rs2[17] pcpi_rs2[18] pcpi_rs2[19] pcpi_rs2[1] pcpi_rs2[20] pcpi_rs2[21]
+ pcpi_rs2[22] pcpi_rs2[23] pcpi_rs2[24] pcpi_rs2[25] pcpi_rs2[26] pcpi_rs2[27] pcpi_rs2[28]
+ pcpi_rs2[29] pcpi_rs2[2] pcpi_rs2[30] pcpi_rs2[31] pcpi_rs2[3] pcpi_rs2[4] pcpi_rs2[5]
+ pcpi_rs2[6] pcpi_rs2[7] pcpi_rs2[8] pcpi_rs2[9] pcpi_valid pcpi_wait pcpi_wr resetn
+ trace_data[0] trace_data[10] trace_data[11] trace_data[12] trace_data[13] trace_data[14]
+ trace_data[15] trace_data[16] trace_data[17] trace_data[18] trace_data[19] trace_data[1]
+ trace_data[20] trace_data[21] trace_data[22] trace_data[23] trace_data[24] trace_data[25]
+ trace_data[26] trace_data[27] trace_data[28] trace_data[29] trace_data[2] trace_data[30]
+ trace_data[31] trace_data[32] trace_data[33] trace_data[34] trace_data[35] trace_data[3]
+ trace_data[4] trace_data[5] trace_data[6] trace_data[7] trace_data[8] trace_data[9]
+ trace_valid trap
XFILLER_79_391 VGND VGND VPWR VPWR sky130_fd_sc_hd__fill_1
X_05903_ _02331_ _02374_ net672 VGND VGND VPWR VPWR _02375_ sky130_fd_sc_hd__o21a_1
X_09671_ net470 _04783_ _04847_ _04846_ VGND VGND VPWR VPWR _04848_ sky130_fd_sc_hd__a31o_1
X_06883_ _03102_ _03103_ VGND VGND VPWR VPWR _03104_ sky130_fd_sc_hd__nor2_1
XFILLER_94_383 VGND VGND VPWR VPWR sky130_fd_sc_hd__fill_1
XFILLER_55_748 VPWR VGND VPWR VGND sky130_ef_sc_hd__decap_12
XFILLER_54_214 VGND VGND VPWR VPWR sky130_fd_sc_hd__fill_2
X_08622_ net1756 net504 net391 VGND VGND VPWR VPWR _00773_ sky130_fd_sc_hd__mux2_1
XFILLER_27_428 VGND VGND VPWR VPWR sky130_fd_sc_hd__decap_4
X_05834_ net809 _02310_ VGND VGND VPWR VPWR _02312_ sky130_fd_sc_hd__or2_1
X_05765_ picorv32_core.instr_xor picorv32_core.instr_xori VGND VGND VPWR VPWR _02249_
+ sky130_fd_sc_hd__or2_2
X_08553_ net466 net1374 net399 VGND VGND VPWR VPWR _00678_ sky130_fd_sc_hd__mux2_1
X_07504_ net780 _03623_ net533 VGND VGND VPWR VPWR _03624_ sky130_fd_sc_hd__mux2_1
X_08484_ net1280 net465 net407 VGND VGND VPWR VPWR _00614_ sky130_fd_sc_hd__mux2_1
X_05696_ _02176_ _02177_ _02178_ _02179_ _02175_ VGND VGND VPWR VPWR _02180_ sky130_fd_sc_hd__a221o_1
X_07435_ picorv32_core.instr_lui picorv32_core.is_lui_auipc_jal VGND VGND VPWR VPWR
+ _03575_ sky130_fd_sc_hd__and2b_1
XFILLER_52_29 VGND VGND VPWR VPWR sky130_fd_sc_hd__decap_6
XFILLER_10_306 VGND VGND VPWR VPWR sky130_fd_sc_hd__fill_2
XTAP_TAPCELL_ROW_98_1723 VGND VPWR sky130_fd_sc_hd__tapvpwrvgnd_1
X_07366_ net783 picorv32_core.decoded_imm\[19\] VGND VGND VPWR VPWR _03506_ sky130_fd_sc_hd__nor2_1
X_09105_ net251 net1802 net334 VGND VGND VPWR VPWR _01272_ sky130_fd_sc_hd__mux2_1
X_06317_ _02724_ _02727_ net565 VGND VGND VPWR VPWR _02728_ sky130_fd_sc_hd__mux2_2
X_07297_ net801 picorv32_core.decoded_imm\[10\] VGND VGND VPWR VPWR _03437_ sky130_fd_sc_hd__nand2_1
X_09036_ net266 net1989 net342 VGND VGND VPWR VPWR _01205_ sky130_fd_sc_hd__mux2_1
X_06248_ net1996 net499 net434 VGND VGND VPWR VPWR _00040_ sky130_fd_sc_hd__mux2_1
Xhold362 picorv32_core.cpuregs\[7\]\[26\] VGND VGND VPWR VPWR net1471 sky130_fd_sc_hd__dlygate4sd3_1
XFILLER_132_720 VPWR VGND VPWR VGND sky130_ef_sc_hd__decap_12
XFILLER_117_783 VGND VGND VPWR VPWR sky130_fd_sc_hd__fill_1
XFILLER_89_111 VGND VGND VPWR VPWR sky130_fd_sc_hd__fill_1
Xhold340 picorv32_core.cpuregs\[13\]\[6\] VGND VGND VPWR VPWR net1449 sky130_fd_sc_hd__dlygate4sd3_1
Xhold351 picorv32_core.cpuregs\[24\]\[1\] VGND VGND VPWR VPWR net1460 sky130_fd_sc_hd__dlygate4sd3_1
X_06179_ picorv32_core.decoded_imm_j\[3\] picorv32_core.decoded_imm_j\[4\] _02610_
+ VGND VGND VPWR VPWR _02611_ sky130_fd_sc_hd__nor3_4
Xhold373 picorv32_core.cpuregs\[21\]\[28\] VGND VGND VPWR VPWR net1482 sky130_fd_sc_hd__dlygate4sd3_1
Xhold395 picorv32_core.cpuregs\[14\]\[30\] VGND VGND VPWR VPWR net1504 sky130_fd_sc_hd__dlygate4sd3_1
Xhold384 net60 VGND VGND VPWR VPWR net1493 sky130_fd_sc_hd__dlygate4sd3_1
XFILLER_104_433 VGND VGND VPWR VPWR sky130_fd_sc_hd__decap_4
XFILLER_2_549 VGND VGND VPWR VPWR sky130_fd_sc_hd__fill_2
XFILLER_104_477 VGND VGND VPWR VPWR sky130_fd_sc_hd__decap_6
XFILLER_77_306 VGND VGND VPWR VPWR sky130_fd_sc_hd__fill_1
Xfanout820 net821 VGND VGND VPWR VPWR net820 sky130_fd_sc_hd__buf_2
Xfanout842 net843 VGND VGND VPWR VPWR net842 sky130_fd_sc_hd__clkbuf_4
Xfanout831 net834 VGND VGND VPWR VPWR net831 sky130_fd_sc_hd__clkbuf_4
X_09938_ net2022 net474 _05036_ _05038_ VGND VGND VPWR VPWR _01417_ sky130_fd_sc_hd__a22o_1
Xfanout864 net865 VGND VGND VPWR VPWR net864 sky130_fd_sc_hd__clkbuf_4
XTAP_TAPCELL_ROW_51_1041 VGND VPWR sky130_fd_sc_hd__tapvpwrvgnd_1
Xfanout875 net876 VGND VGND VPWR VPWR net875 sky130_fd_sc_hd__buf_4
Xfanout853 net854 VGND VGND VPWR VPWR net853 sky130_fd_sc_hd__clkbuf_4
XTAP_TAPCELL_ROW_125_2119 VGND VPWR sky130_fd_sc_hd__tapvpwrvgnd_1
Xfanout897 net899 VGND VGND VPWR VPWR net897 sky130_fd_sc_hd__buf_4
Xhold1040 picorv32_core.cpuregs\[5\]\[14\] VGND VGND VPWR VPWR net2149 sky130_fd_sc_hd__dlygate4sd3_1
XTAP_TAPCELL_ROW_5_376 VGND VPWR sky130_fd_sc_hd__tapvpwrvgnd_1
Xfanout886 net888 VGND VGND VPWR VPWR net886 sky130_fd_sc_hd__clkbuf_4
X_09869_ net1631 net429 net324 VGND VGND VPWR VPWR _01357_ sky130_fd_sc_hd__mux2_1
Xhold1051 axi_adapter.xfer_done VGND VGND VPWR VPWR net2160 sky130_fd_sc_hd__dlygate4sd3_1
Xhold1084 picorv32_core.cpuregs\[18\]\[0\] VGND VGND VPWR VPWR net2193 sky130_fd_sc_hd__dlygate4sd3_1
Xhold1073 picorv32_core.cpuregs\[16\]\[4\] VGND VGND VPWR VPWR net2182 sky130_fd_sc_hd__dlygate4sd3_1
Xhold1062 picorv32_core.cpuregs\[18\]\[10\] VGND VGND VPWR VPWR net2171 sky130_fd_sc_hd__dlygate4sd3_1
XFILLER_45_225 VGND VGND VPWR VPWR sky130_fd_sc_hd__fill_2
XFILLER_45_236 VGND VGND VPWR VPWR sky130_fd_sc_hd__decap_3
XTAP_TAPCELL_ROW_107_1852 VGND VPWR sky130_fd_sc_hd__tapvpwrvgnd_1
Xhold1095 picorv32_core.cpuregs\[16\]\[19\] VGND VGND VPWR VPWR net2204 sky130_fd_sc_hd__dlygate4sd3_1
X_11831_ net64 VGND VGND VPWR VPWR net96 sky130_fd_sc_hd__clkbuf_1
XFILLER_45_247 VGND VGND VPWR VPWR sky130_fd_sc_hd__fill_1
XTAP_TAPCELL_ROW_107_1863 VGND VPWR sky130_fd_sc_hd__tapvpwrvgnd_1
XFILLER_61_729 VGND VGND VPWR VPWR sky130_fd_sc_hd__fill_1
XTAP_TAPCELL_ROW_44_938 VGND VPWR sky130_fd_sc_hd__tapvpwrvgnd_1
XTAP_TAPCELL_ROW_44_949 VGND VPWR sky130_fd_sc_hd__tapvpwrvgnd_1